support/feeders/sim_R5-12.47-1.glm
//********************************
//Simplified feeder model

clock{
  timezone EST+5EDT;
  timestamp '2000-01-01 0:00:00';
  stoptime '2000-01-01 1:00:00';
}
#set profiler=1


module tape;
module powerflow{
  solver_method NR;
  default_maximum_voltage_error 1e-6;
};

object node {
    name R5_12_47_1_node_266;
    phases ABCN;
    nominal_voltage 7970.00;
    bustype SWING;
    voltage_A 7970.00;
    voltage_B -3985.00-6902.22j;
    voltage_C -3985.00+6902.22j;
}
object regulator_configuration {
    name feeder_reg_cfg;
    Control OUTPUT_VOLTAGE;
    band_center 8300;
    band_width 132;
    connect_type WYE_WYE;
    time_delay 30;
    raise_taps 16;
    lower_taps 16;
    regulation 0.10;
    tap_pos_A 0;
    tap_pos_B 0;
    tap_pos_C 0;
}
object meter {
    name R5_12_47_1_meter_head;
    phases ABCN;
    nominal_voltage 7970.00;
    voltage_A 7970.00;
    voltage_B -3985.00-6902.22j;
    voltage_C -3985.00+6902.22j;
}
object regulator {
    name feeder_reg_1;
    from R5_12_47_1_node_266;
    to R5_12_47_1_meter_head;
    phases ABCN;
    configuration feeder_reg_cfg;
}
object node {
    parent R5_12_47_1_meter_head;
    name R5_12_47_1_node_265;
    phases ABCN;
    nominal_voltage 7970.00;
    voltage_A 7970.00;
    voltage_B -3985.00-6902.22j;
    voltage_C -3985.00+6902.22j;
}
object meter { // node {
   name R5_12_47_1_node_105;
   phases ABCN;
   nominal_voltage 7970.00;
   voltage_A 7970.00;
   voltage_B -3985.00-6902.22j;
   voltage_C -3985.00+6902.22j;
}
object meter { // node {
   name R5_12_47_1_node_107;
   phases BN;
   nominal_voltage 7970.00;
   voltage_A 7970.00;
   voltage_B -3985.00-6902.22j;
   voltage_C -3985.00+6902.22j;
}
object meter { // node {
   name R5_12_47_1_node_104;
   phases ABCN;
   nominal_voltage 7970.00;
   voltage_A 7970.00;
   voltage_B -3985.00-6902.22j;
   voltage_C -3985.00+6902.22j;
}
object meter { // node {
   name R5_12_47_1_node_196;
   phases BN;
   nominal_voltage 7970.00;
   voltage_A 7970.00;
   voltage_B -3985.00-6902.22j;
   voltage_C -3985.00+6902.22j;
}
object meter { // node {
   name R5_12_47_1_node_21;
   phases CN;
   nominal_voltage 7970.00;
   voltage_A 7970.00;
   voltage_B -3985.00-6902.22j;
   voltage_C -3985.00+6902.22j;
}
object meter { // node {
   name R5_12_47_1_node_111;
   phases ABCN;
   nominal_voltage 7970.00;
   voltage_A 7970.00;
   voltage_B -3985.00-6902.22j;
   voltage_C -3985.00+6902.22j;
}
object meter { // node {
   name R5_12_47_1_node_197;
   phases BN;
   nominal_voltage 7970.00;
   voltage_A 7970.00;
   voltage_B -3985.00-6902.22j;
   voltage_C -3985.00+6902.22j;
}
object meter { // node {
   name R5_12_47_1_node_166;
   phases ABCN;
   nominal_voltage 7970.00;
   voltage_A 7970.00;
   voltage_B -3985.00-6902.22j;
   voltage_C -3985.00+6902.22j;
}
object meter { // node {
   name R5_12_47_1_node_119;
   phases ACN;
   nominal_voltage 7970.00;
   voltage_A 7970.00;
   voltage_B -3985.00-6902.22j;
   voltage_C -3985.00+6902.22j;
}
object meter { // node {
   name R5_12_47_1_node_80;
   phases AN;
   nominal_voltage 7970.00;
   voltage_A 7970.00;
   voltage_B -3985.00-6902.22j;
   voltage_C -3985.00+6902.22j;
}
object meter { // node {
   name R5_12_47_1_node_165;
   phases ABCN;
   nominal_voltage 7970.00;
   voltage_A 7970.00;
   voltage_B -3985.00-6902.22j;
   voltage_C -3985.00+6902.22j;
}
object meter { // node {
   name R5_12_47_1_node_79;
   phases CN;
   nominal_voltage 7970.00;
   voltage_A 7970.00;
   voltage_B -3985.00-6902.22j;
   voltage_C -3985.00+6902.22j;
}
object meter { // node {
   name R5_12_47_1_node_149;
   phases ABCN;
   nominal_voltage 7970.00;
   voltage_A 7970.00;
   voltage_B -3985.00-6902.22j;
   voltage_C -3985.00+6902.22j;
}
object meter { // node {
   name R5_12_47_1_node_78;
   phases BN;
   nominal_voltage 7970.00;
   voltage_A 7970.00;
   voltage_B -3985.00-6902.22j;
   voltage_C -3985.00+6902.22j;
}
object meter { // node {
   name R5_12_47_1_node_112;
   phases BN;
   nominal_voltage 7970.00;
   voltage_A 7970.00;
   voltage_B -3985.00-6902.22j;
   voltage_C -3985.00+6902.22j;
}
object meter { // node {
   name R5_12_47_1_node_164;
   phases ABCN;
   nominal_voltage 7970.00;
   voltage_A 7970.00;
   voltage_B -3985.00-6902.22j;
   voltage_C -3985.00+6902.22j;
}
object meter { // node {
   name R5_12_47_1_node_120;
   phases AN;
   nominal_voltage 7970.00;
   voltage_A 7970.00;
   voltage_B -3985.00-6902.22j;
   voltage_C -3985.00+6902.22j;
}
object meter { // node {
   name R5_12_47_1_node_145;
   phases ABCN;
   nominal_voltage 7970.00;
   voltage_A 7970.00;
   voltage_B -3985.00-6902.22j;
   voltage_C -3985.00+6902.22j;
}
object meter { // node {
   name R5_12_47_1_node_113;
   phases AN;
   nominal_voltage 7970.00;
   voltage_A 7970.00;
   voltage_B -3985.00-6902.22j;
   voltage_C -3985.00+6902.22j;
}
object meter { // node {
   name R5_12_47_1_node_163;
   phases ABCN;
   nominal_voltage 7970.00;
   voltage_A 7970.00;
   voltage_B -3985.00-6902.22j;
   voltage_C -3985.00+6902.22j;
}
object meter { // node {
   name R5_12_47_1_node_114;
   phases BN;
   nominal_voltage 7970.00;
   voltage_A 7970.00;
   voltage_B -3985.00-6902.22j;
   voltage_C -3985.00+6902.22j;
}
object meter { // node {
   name R5_12_47_1_node_10;
   phases BCN;
   nominal_voltage 7970.00;
   voltage_A 7970.00;
   voltage_B -3985.00-6902.22j;
   voltage_C -3985.00+6902.22j;
}
object meter { // node {
   name R5_12_47_1_node_160;
   phases ABCN;
   nominal_voltage 7970.00;
   voltage_A 7970.00;
   voltage_B -3985.00-6902.22j;
   voltage_C -3985.00+6902.22j;
}
object meter { // node {
   name R5_12_47_1_node_138;
   phases CN;
   nominal_voltage 7970.00;
   voltage_A 7970.00;
   voltage_B -3985.00-6902.22j;
   voltage_C -3985.00+6902.22j;
}
object meter { // node {
   name R5_12_47_1_node_11;
   phases CN;
   nominal_voltage 7970.00;
   voltage_A 7970.00;
   voltage_B -3985.00-6902.22j;
   voltage_C -3985.00+6902.22j;
}
object meter { // node {
   name R5_12_47_1_node_115;
   phases CN;
   nominal_voltage 7970.00;
   voltage_A 7970.00;
   voltage_B -3985.00-6902.22j;
   voltage_C -3985.00+6902.22j;
}
object meter { // node {
   name R5_12_47_1_node_130;
   phases ABCN;
   nominal_voltage 7970.00;
   voltage_A 7970.00;
   voltage_B -3985.00-6902.22j;
   voltage_C -3985.00+6902.22j;
}
object meter { // node {
   name R5_12_47_1_node_122;
   phases ABN;
   nominal_voltage 7970.00;
   voltage_A 7970.00;
   voltage_B -3985.00-6902.22j;
   voltage_C -3985.00+6902.22j;
}
object meter { // node {
   name R5_12_47_1_node_58;
   phases AN;
   nominal_voltage 7970.00;
   voltage_A 7970.00;
   voltage_B -3985.00-6902.22j;
   voltage_C -3985.00+6902.22j;
}
object meter { // node {
   name R5_12_47_1_node_129;
   phases CN;
   nominal_voltage 7970.00;
   voltage_A 7970.00;
   voltage_B -3985.00-6902.22j;
   voltage_C -3985.00+6902.22j;
}
object meter { // node {
   name R5_12_47_1_node_136;
   phases ABCN;
   nominal_voltage 7970.00;
   voltage_A 7970.00;
   voltage_B -3985.00-6902.22j;
   voltage_C -3985.00+6902.22j;
}
object meter { // node {
   name R5_12_47_1_node_123;
   phases AN;
   nominal_voltage 7970.00;
   voltage_A 7970.00;
   voltage_B -3985.00-6902.22j;
   voltage_C -3985.00+6902.22j;
}
object meter { // node {
   name R5_12_47_1_node_133;
   phases ABCN;
   nominal_voltage 7970.00;
   voltage_A 7970.00;
   voltage_B -3985.00-6902.22j;
   voltage_C -3985.00+6902.22j;
}
object meter { // node {
   name R5_12_47_1_node_124;
   phases CN;
   nominal_voltage 7970.00;
   voltage_A 7970.00;
   voltage_B -3985.00-6902.22j;
   voltage_C -3985.00+6902.22j;
}
object meter { // node {
   name R5_12_47_1_node_156;
   phases ABCN;
   nominal_voltage 7970.00;
   voltage_A 7970.00;
   voltage_B -3985.00-6902.22j;
   voltage_C -3985.00+6902.22j;
}
object meter { // node {
   name R5_12_47_1_node_146;
   phases BN;
   nominal_voltage 7970.00;
   voltage_A 7970.00;
   voltage_B -3985.00-6902.22j;
   voltage_C -3985.00+6902.22j;
}
object meter { // node {
   name R5_12_47_1_node_261;
   phases ABCN;
   nominal_voltage 7970.00;
   voltage_A 7970.00;
   voltage_B -3985.00-6902.22j;
   voltage_C -3985.00+6902.22j;
}
object meter { // node {
   name R5_12_47_1_node_36;
   phases ABCN;
   nominal_voltage 7970.00;
   voltage_A 7970.00;
   voltage_B -3985.00-6902.22j;
   voltage_C -3985.00+6902.22j;
}
object meter { // node {
   name R5_12_47_1_node_81;
   phases ABCN;
   nominal_voltage 7970.00;
   voltage_A 7970.00;
   voltage_B -3985.00-6902.22j;
   voltage_C -3985.00+6902.22j;
}
object meter { // node {
   name R5_12_47_1_node_46;
   phases ABCN;
   nominal_voltage 7970.00;
   voltage_A 7970.00;
   voltage_B -3985.00-6902.22j;
   voltage_C -3985.00+6902.22j;
}
object meter { // node {
   name R5_12_47_1_node_47;
   phases CN;
   nominal_voltage 7970.00;
   voltage_A 7970.00;
   voltage_B -3985.00-6902.22j;
   voltage_C -3985.00+6902.22j;
}
object meter { // node {
   name R5_12_47_1_node_154;
   phases CN;
   nominal_voltage 7970.00;
   voltage_A 7970.00;
   voltage_B -3985.00-6902.22j;
   voltage_C -3985.00+6902.22j;
}
object meter { // node {
   name R5_12_47_1_node_45;
   phases ABCN;
   nominal_voltage 7970.00;
   voltage_A 7970.00;
   voltage_B -3985.00-6902.22j;
   voltage_C -3985.00+6902.22j;
}
object meter { // node {
   name R5_12_47_1_node_28;
   phases ABCN;
   nominal_voltage 7970.00;
   voltage_A 7970.00;
   voltage_B -3985.00-6902.22j;
   voltage_C -3985.00+6902.22j;
}
object meter { // node {
   name R5_12_47_1_node_263;
   phases ABCN;
   nominal_voltage 7970.00;
   voltage_A 7970.00;
   voltage_B -3985.00-6902.22j;
   voltage_C -3985.00+6902.22j;
}
object meter { // node {
   name R5_12_47_1_node_68;
   phases ABCN;
   nominal_voltage 7970.00;
   voltage_A 7970.00;
   voltage_B -3985.00-6902.22j;
   voltage_C -3985.00+6902.22j;
}
object meter { // node {
   name R5_12_47_1_node_172;
   phases ABCN;
   nominal_voltage 7970.00;
   voltage_A 7970.00;
   voltage_B -3985.00-6902.22j;
   voltage_C -3985.00+6902.22j;
}
object meter { // node {
   name R5_12_47_1_node_74;
   phases ABCN;
   nominal_voltage 7970.00;
   voltage_A 7970.00;
   voltage_B -3985.00-6902.22j;
   voltage_C -3985.00+6902.22j;
}
object meter { // node {
   name R5_12_47_1_node_262;
   phases ABCN;
   nominal_voltage 7970.00;
   voltage_A 7970.00;
   voltage_B -3985.00-6902.22j;
   voltage_C -3985.00+6902.22j;
}
object meter { // node {
   name R5_12_47_1_node_182;
   phases ABCN;
   nominal_voltage 7970.00;
   voltage_A 7970.00;
   voltage_B -3985.00-6902.22j;
   voltage_C -3985.00+6902.22j;
}
object meter { // node {
   name R5_12_47_1_node_75;
   phases ABCN;
   nominal_voltage 7970.00;
   voltage_A 7970.00;
   voltage_B -3985.00-6902.22j;
   voltage_C -3985.00+6902.22j;
}
object meter { // node {
   name R5_12_47_1_node_12;
   phases ABCN;
   nominal_voltage 7970.00;
   voltage_A 7970.00;
   voltage_B -3985.00-6902.22j;
   voltage_C -3985.00+6902.22j;
}
object meter { // node {
   name R5_12_47_1_node_3;
   phases ABCN;
   nominal_voltage 7970.00;
   voltage_A 7970.00;
   voltage_B -3985.00-6902.22j;
   voltage_C -3985.00+6902.22j;
}
object line_configuration {
    name line_config_seg_0;
    z11 0.00039261+0.07545204j;
    z12 -0.03260724-0.11123182j;
    z13 -0.02362026-0.08016068j;
    z21 -0.03260724-0.11123182j;
    z22 0.04676395+0.07407876j;
    z23 -0.0192948-0.08596301j;
    z31 -0.02362026-0.08016068j;
    z32 -0.0192948-0.08596301j;
    z33 0.03474431+0.14827479j;
}
object line_configuration {
    name line_config_seg_1;
    z22 0.08722165+0.09120491j;
}
object line_configuration {
    name line_config_seg_2;
    z11 -8.69832742e-05+0.01307421j;
    z12 -0.00469734-0.01735907j;
    z13 -0.00358019-0.01267104j;
    z21 -0.00469734-0.01735907j;
    z22 0.00611132+0.01121117j;
    z23 -0.00245247-0.01396239j;
    z31 -0.00358019-0.01267104j;
    z32 -0.00245247-0.01396239j;
    z33 0.00514134+0.02232011j;
}
object line_configuration {
    name line_config_seg_3;
    z22 0.0699526+0.02911182j;
}
object line_configuration {
    name line_config_seg_4;
    z33 0.06202317+0.04851409j;
}
object line_configuration {
    name line_config_seg_5;
    z11 0.00010311+0.0038239j;
    z12 -0.001333-0.00477142j;
    z13 -0.00098379-0.00362046j;
    z21 -0.001333-0.00477142j;
    z22 0.00158207+0.00321986j;
    z23 -0.00070889-0.00404712j;
    z31 -0.00098379-0.00362046j;
    z32 -0.00070889-0.00404712j;
    z33 0.00142895+0.00594379j;
}
object line_configuration {
    name line_config_seg_6;
    z22 0.07902439+0.03264511j;
}
object line_configuration {
    name line_config_seg_7;
    z11 0.00050693+0.02710353j;
    z12 -0.00949836-0.03353079j;
    z13 -0.00681689-0.02517142j;
    z21 -0.00949836-0.03353079j;
    z22 0.01096834+0.02212853j;
    z23 -0.00486525-0.02838772j;
    z31 -0.00681689-0.02517142j;
    z32 -0.00486525-0.02838772j;
    z33 0.01037992+0.04195378j;
}
object line_configuration {
    name line_config_seg_8;
    z11 0.06055503+0.05620397j;
    z13 0.00302069+0.02256401j;
    z31 0.00302069+0.02256401j;
    z33 0.00372436-0.00201286j;
}
object line_configuration {
    name line_config_seg_9;
    z11 0.15950131+0.16713226j;
}
object line_configuration {
    name line_config_seg_10;
    z11 -1.27788878e-05+0.01025044j;
    z12 -0.00369713-0.01543773j;
    z13 -0.00345483-0.01140369j;
    z21 -0.00369713-0.01543773j;
    z22 0.00626372+0.01075025j;
    z23 -0.00234673-0.01183567j;
    z31 -0.00345483-0.01140369j;
    z32 -0.00234673-0.01183567j;
    z33 0.00364901+0.02025126j;
}
object line_configuration {
    name line_config_seg_11;
    z33 0.14027721+0.14783162j;
}
object line_configuration {
    name line_config_seg_12;
    z11 0.00035868+0.00695281j;
    z12 -0.00241516-0.00986899j;
    z13 -0.00224654-0.00774599j;
    z21 -0.00241516-0.00986899j;
    z22 0.00385561+0.00742204j;
    z23 -0.0016089-0.00805061j;
    z31 -0.00224654-0.00774599j;
    z32 -0.0016089-0.00805061j;
    z33 0.00222397+0.01243257j;
}
object line_configuration {
    name line_config_seg_13;
    z22 0.17358093+0.18206056j;
}
object line_configuration {
    name line_config_seg_14;
    z22 0.14790984+0.15479805j;
}
object line_configuration {
    name line_config_seg_15;
    z11 -0.00073375+0.00999355j;
    z12 -0.00378696-0.01238145j;
    z13 -0.00220341-0.00824801j;
    z21 -0.00378696-0.01238145j;
    z22 0.00396683+0.0065968j;
    z23 -0.0013966-0.00976001j;
    z31 -0.00220341-0.00824801j;
    z32 -0.0013966-0.00976001j;
    z33 0.00469032+0.01665645j;
}
object line_configuration {
    name line_config_seg_16;
    z11 0.02179261+0.02277065j;
}
object line_configuration {
    name line_config_seg_17;
    z11 -4.15407984e-06+5.06738289e-05j;
    z12 -1.94580655e-05-6.60238486e-05j;
    z13 -1.19594836e-05-4.36186659e-05j;
    z21 -1.94580655e-05-6.60238486e-05j;
    z22 2.23322417e-05+3.55571324e-05j;
    z23 -7.63302585e-06-5.05488686e-05j;
    z31 -1.19594836e-05-4.36186659e-05j;
    z32 -7.63302585e-06-5.05488686e-05j;
    z33 2.37785142e-05+8.97203007e-05j;
}
object line_configuration {
    name line_config_seg_18;
    z11 0.1806176+0.19171273j;
}
object line_configuration {
    name line_config_seg_19;
    z11 -0.00048257+0.00437643j;
    z12 -0.00173078-0.00665805j;
    z13 -0.00128319-0.00428819j;
    z21 -0.00173078-0.00665805j;
    z22 0.00262247+0.00372597j;
    z23 -0.00083821-0.00467088j;
    z31 -0.00128319-0.00428819j;
    z32 -0.00083821-0.00467088j;
    z33 0.00203371+0.0093657j;
}
object line_configuration {
    name line_config_seg_20;
    z22 0.25424975+0.19921626j;
}
object line_configuration {
    name line_config_seg_21;
    z22 0.18084851+0.04512146j;
    z23 -0.07390742+0.02890606j;
    z32 -0.07390742+0.02890606j;
    z33 0.1185181+0.23048249j;
}
object line_configuration {
    name line_config_seg_22;
    z11 -0.00125096+0.00799363j;
    z12 -0.00324472-0.00978138j;
    z13 -0.00143534-0.00578229j;
    z21 -0.00324472-0.00978138j;
    z22 0.00305107+0.004168j;
    z23 -0.00079236-0.0071368j;
    z31 -0.00143534-0.00578229j;
    z32 -0.00079236-0.0071368j;
    z33 0.0044172+0.01418584j;
}
object line_configuration {
    name line_config_seg_23;
    z33 0.00114495+0.00109985j;
}
object line_configuration {
    name line_config_seg_24;
    z33 0.24366414+0.25594998j;
}
object line_configuration {
    name line_config_seg_25;
    z33 0.23686596+0.24876661j;
}
object line_configuration {
    name line_config_seg_26;
    z11 -9.69382779e-05+0.01409486j;
    z12 -0.00494543-0.0143124j;
    z13 -0.00248331-0.0102591j;
    z21 -0.00494543-0.0143124j;
    z22 0.00362341+0.00809039j;
    z23 -0.0017292-0.01317001j;
    z31 -0.00248331-0.0102591j;
    z32 -0.0017292-0.01317001j;
    z33 0.00609248+0.01807646j;
}
object line_configuration {
    name line_config_seg_27;
    z11 0.08995043+0.08083397j;
    z12 0.01985439+0.02778929j;
    z21 0.01985439+0.02778929j;
    z22 -0.00011799+4.73249069e-05j;
}
object line_configuration {
    name line_config_seg_28;
    z11 0.12944933+0.13592342j;
}
object line_configuration {
    name line_config_seg_29;
    z33 0.20863753+0.21664535j;
}
object line_configuration {
    name line_config_seg_30;
    z11 0.0008469+0.00819514j;
    z12 -0.00278293-0.00913927j;
    z13 -0.00185283-0.00751992j;
    z21 -0.00278293-0.00913927j;
    z22 0.00276791+0.00695079j;
    z23 -0.00161284-0.0086989j;
    z31 -0.00185283-0.00751992j;
    z32 -0.00161284-0.0086989j;
    z33 0.00269483+0.01072189j;
}
object line_configuration {
    name line_config_seg_31;
    z11 0.09760339+0.102791j;
}
object line_configuration {
    name line_config_seg_32;
    z11 0.00103551+0.01192216j;
    z12 -0.00422317-0.01787187j;
    z13 -0.00409392-0.01457635j;
    z21 -0.00422317-0.01787187j;
    z22 0.00767082+0.01471266j;
    z23 -0.00328774-0.01479091j;
    z31 -0.00409392-0.01457635j;
    z32 -0.00328774-0.01479091j;
    z33 0.00314887+0.02271468j;
}
object line_configuration {
    name line_config_seg_33;
    z33 0.12664386+0.13337221j;
}
object line_configuration {
    name line_config_seg_34;
    z11 0.00175582+0.00702547j;
    z12 -0.00222512-0.00855142j;
    z13 -0.00196233-0.00838418j;
    z21 -0.00222512-0.00855142j;
    z22 0.0031882+0.00907849j;
    z23 -0.00192373-0.00847843j;
    z31 -0.00196233-0.00838418j;
    z32 -0.00192373-0.00847843j;
    z33 0.00119245+0.0094814j;
}
object line_configuration {
    name line_config_seg_35;
    z22 0.09855809+0.10501617j;
}
object line_configuration {
    name line_config_seg_36;
    z11 0.00436357+0.04442027j;
    z12 -0.01493638-0.04654231j;
    z13 -0.00872403-0.03817767j;
    z21 -0.01493638-0.04654231j;
    z22 0.01286168+0.03470144j;
    z23 -0.00808511-0.04601168j;
    z31 -0.00872403-0.03817767j;
    z32 -0.00808511-0.04601168j;
    z33 0.01488168+0.05438953j;
}
object line_configuration {
    name line_config_seg_37;
    z11 0.003419+0.02632177j;
    z12 -0.00860578-0.02619587j;
    z13 -0.00396296-0.02267636j;
    z21 -0.00860578-0.02619587j;
    z22 0.00677717+0.02072217j;
    z23 -0.00579148-0.02710159j;
    z31 -0.00396296-0.02267636j;
    z32 -0.00579148-0.02710159j;
    z33 0.00854338+0.03019643j;
}
object line_configuration {
    name line_config_seg_38;
    z11 -0.00480326+0.00630313j;
    z12 -0.00405762-0.00090447j;
    z13 0.01613419+0.00413761j;
    z21 -0.00405762-0.00090447j;
    z22 0.00024432-0.00037448j;
    z23 0.00713505+0.01126259j;
    z31 0.01613419+0.00413761j;
    z32 0.00713505+0.01126259j;
    z33 0.01664618+0.04496872j;
}
object line_configuration {
    name line_config_seg_39;
    z11 0.00774128+0.03351919j;
    z12 -0.01009693-0.02863023j;
    z13 -0.00436138-0.02793696j;
    z21 -0.01009693-0.02863023j;
    z22 0.00566613+0.02850287j;
    z23 -0.00713199-0.0340769j;
    z31 -0.00436138-0.02793696j;
    z32 -0.00713199-0.0340769j;
    z33 0.00831338+0.02918968j;
}
object line_configuration {
    name line_config_seg_40;
    z33 0.00019539+0.00091736j;
}
object line_configuration {
    name line_config_seg_41;
    z33 0.10807933+0.11263575j;
}
object line_configuration {
    name line_config_seg_42;
    z11 0.00046554+0.00141061j;
    z12 -0.00034082-0.0009884j;
    z13 -0.00012295-0.00107989j;
    z21 -0.00034082-0.0009884j;
    z22 9.26501627e-05+0.00124155j;
    z23 -0.0003246-0.00134184j;
    z31 -0.00012295-0.00107989j;
    z32 -0.0003246-0.00134184j;
    z33 0.00026309+0.00086667j;
}
object line_configuration {
    name line_config_seg_43;
    z11 0.03741523-0.01642834j;
    z12 0.0111946+0.00734638j;
    z13 0.00335572-0.0148621j;
    z21 0.0111946+0.00734638j;
    z22 0.07797543+0.07661257j;
    z23 0.00504107+0.02204986j;
    z31 0.00335572-0.0148621j;
    z32 0.00504107+0.02204986j;
    z33 -0.00158741-3.99778915e-05j;
}
object line_configuration {
    name line_config_seg_44;
    z11 0.0415749+0.09260742j;
    z12 -0.04088318-0.06498745j;
    z13 -0.02327837-0.06544769j;
    z21 -0.04088318-0.06498745j;
    z22 0.02067194+0.07214549j;
    z23 -0.03185237-0.08942148j;
    z31 -0.02327837-0.06544769j;
    z32 -0.03185237-0.08942148j;
    z33 0.03445665+0.06137591j;
}
object line_configuration {
    name line_config_seg_45;
    z11 0.0189023+0.04042671j;
    z12 -0.0184818-0.03209901j;
    z13 -0.01243195-0.03228275j;
    z21 -0.0184818-0.03209901j;
    z22 0.01252203+0.03354158j;
    z23 -0.01696816-0.03979343j;
    z31 -0.01243195-0.03228275j;
    z32 -0.01696816-0.03979343j;
    z33 0.01698641+0.0314355j;
}
object line_configuration {
    name line_config_seg_46;
    z11 0.0061798+0.03816713j;
    z12 -0.00973059-0.04610591j;
    z13 -0.01021717-0.04370161j;
    z21 -0.00973059-0.04610591j;
    z22 0.01476557+0.04221618j;
    z23 -0.01058219-0.04133537j;
    z31 -0.01021717-0.04370161j;
    z32 -0.01058219-0.04133537j;
    z33 0.00974442+0.05227175j;
}
object line_configuration {
    name line_config_seg_47;
    z11 0.02017397+0.04549717j;
    z12 -0.02013229-0.03441604j;
    z13 -0.01251978-0.03291222j;
    z21 -0.02013229-0.03441604j;
    z22 0.01191009+0.03436054j;
    z23 -0.01772746-0.0437368j;
    z31 -0.01251978-0.03291222j;
    z32 -0.01772746-0.0437368j;
    z33 0.0192179+0.03343951j;
}
object line_configuration {
    name line_config_seg_48;
    z11 0.00836874+0.01892762j;
    z12 -0.01209355-0.01969062j;
    z13 -0.0070002-0.02140898j;
    z21 -0.01209355-0.01969062j;
    z22 0.01400508+0.02219545j;
    z23 -0.01183855-0.02602702j;
    z31 -0.0070002-0.02140898j;
    z32 -0.01183855-0.02602702j;
    z33 0.00852623+0.02606408j;
}
object line_configuration {
    name line_config_seg_49;
    z11 0.00359281+0.00818746j;
    z12 -0.00665299-0.0086041j;
    z13 -0.00213745-0.01027738j;
    z21 -0.00665299-0.0086041j;
    z22 0.00819694+0.01071812j;
    z23 -0.0062898-0.01381263j;
    z31 -0.00213745-0.01027738j;
    z32 -0.0062898-0.01381263j;
    z33 0.00325662+0.01385695j;
}
object line_configuration {
    name line_config_seg_50;
    z11 0.02591131+0.02007559j;
    z12 -0.02196414-0.01390603j;
    z13 -0.01710468-0.01307455j;
    z21 -0.02196414-0.01390603j;
    z22 0.01612764+0.01554636j;
    z23 -0.02154552-0.0199027j;
    z31 -0.01710468-0.01307455j;
    z32 -0.02154552-0.0199027j;
    z33 0.02010257+0.0128132j;
}
object line_configuration {
    name line_config_seg_51;
    z11 0.02422554+0.00904554j;
    z12 -0.03673418-0.00783733j;
    z13 -0.01240966-0.01266255j;
    z21 -0.03673418-0.00783733j;
    z22 0.03847138+0.03409918j;
    z23 -0.02211485-0.03370848j;
    z31 -0.01240966-0.01266255j;
    z32 -0.02211485-0.03370848j;
    z33 0.01153667+0.01580213j;
}
object line_configuration {
    name line_config_seg_52;
    z11 0.07302751+0.06266169j;
    z12 -0.06484514-0.04559933j;
    z13 -0.05538861-0.03997956j;
    z21 -0.06484514-0.04559933j;
    z22 0.0476309+0.04180428j;
    z23 -0.06379441-0.05579976j;
    z31 -0.05538861-0.03997956j;
    z32 -0.06379441-0.05579976j;
    z33 0.06708594+0.04124058j;
}
object overhead_line {
    name line_seg_0;
    phases ABC;
    from R5_12_47_1_node_265;
    to R5_12_47_1_node_105;
    length 5280 ft;
    configuration line_config_seg_0;
}
object overhead_line {
    name line_seg_1;
    phases B;
    from R5_12_47_1_node_105;
    to R5_12_47_1_node_107;
    length 5280 ft;
    configuration line_config_seg_1;
}
object overhead_line {
    name line_seg_2;
    phases ABC;
    from R5_12_47_1_node_105;
    to R5_12_47_1_node_104;
    length 5280 ft;
    configuration line_config_seg_2;
}
object overhead_line {
    name line_seg_3;
    phases B;
    from R5_12_47_1_node_104;
    to R5_12_47_1_node_196;
    length 5280 ft;
    configuration line_config_seg_3;
}
object overhead_line {
    name line_seg_4;
    phases C;
    from R5_12_47_1_node_104;
    to R5_12_47_1_node_21;
    length 5280 ft;
    configuration line_config_seg_4;
}
object overhead_line {
    name line_seg_5;
    phases ABC;
    from R5_12_47_1_node_104;
    to R5_12_47_1_node_111;
    length 5280 ft;
    configuration line_config_seg_5;
}
object overhead_line {
    name line_seg_6;
    phases B;
    from R5_12_47_1_node_111;
    to R5_12_47_1_node_197;
    length 5280 ft;
    configuration line_config_seg_6;
}
object overhead_line {
    name line_seg_7;
    phases ABC;
    from R5_12_47_1_node_111;
    to R5_12_47_1_node_166;
    length 5280 ft;
    configuration line_config_seg_7;
}
object overhead_line {
    name line_seg_8;
    phases AC;
    from R5_12_47_1_node_166;
    to R5_12_47_1_node_119;
    length 5280 ft;
    configuration line_config_seg_8;
}
object overhead_line {
    name line_seg_9;
    phases A;
    from R5_12_47_1_node_119;
    to R5_12_47_1_node_80;
    length 5280 ft;
    configuration line_config_seg_9;
}
object overhead_line {
    name line_seg_10;
    phases ABC;
    from R5_12_47_1_node_166;
    to R5_12_47_1_node_165;
    length 5280 ft;
    configuration line_config_seg_10;
}
object overhead_line {
    name line_seg_11;
    phases C;
    from R5_12_47_1_node_165;
    to R5_12_47_1_node_79;
    length 5280 ft;
    configuration line_config_seg_11;
}
object overhead_line {
    name line_seg_12;
    phases ABC;
    from R5_12_47_1_node_165;
    to R5_12_47_1_node_149;
    length 5280 ft;
    configuration line_config_seg_12;
}
object overhead_line {
    name line_seg_13;
    phases B;
    from R5_12_47_1_node_149;
    to R5_12_47_1_node_78;
    length 5280 ft;
    configuration line_config_seg_13;
}
object overhead_line {
    name line_seg_14;
    phases B;
    from R5_12_47_1_node_149;
    to R5_12_47_1_node_112;
    length 5280 ft;
    configuration line_config_seg_14;
}
object overhead_line {
    name line_seg_15;
    phases ABC;
    from R5_12_47_1_node_149;
    to R5_12_47_1_node_164;
    length 5280 ft;
    configuration line_config_seg_15;
}
object overhead_line {
    name line_seg_16;
    phases A;
    from R5_12_47_1_node_164;
    to R5_12_47_1_node_120;
    length 5280 ft;
    configuration line_config_seg_16;
}
object overhead_line {
    name line_seg_17;
    phases ABC;
    from R5_12_47_1_node_164;
    to R5_12_47_1_node_145;
    length 5280 ft;
    configuration line_config_seg_17;
}
object overhead_line {
    name line_seg_18;
    phases A;
    from R5_12_47_1_node_145;
    to R5_12_47_1_node_113;
    length 5280 ft;
    configuration line_config_seg_18;
}
object overhead_line {
    name line_seg_19;
    phases ABC;
    from R5_12_47_1_node_145;
    to R5_12_47_1_node_163;
    length 5280 ft;
    configuration line_config_seg_19;
}
object overhead_line {
    name line_seg_20;
    phases B;
    from R5_12_47_1_node_163;
    to R5_12_47_1_node_114;
    length 5280 ft;
    configuration line_config_seg_20;
}
object overhead_line {
    name line_seg_21;
    phases BC;
    from R5_12_47_1_node_163;
    to R5_12_47_1_node_10;
    length 5280 ft;
    configuration line_config_seg_21;
}
object overhead_line {
    name line_seg_22;
    phases ABC;
    from R5_12_47_1_node_163;
    to R5_12_47_1_node_160;
    length 5280 ft;
    configuration line_config_seg_22;
}
object overhead_line {
    name line_seg_23;
    phases C;
    from R5_12_47_1_node_160;
    to R5_12_47_1_node_138;
    length 5280 ft;
    configuration line_config_seg_23;
}
object overhead_line {
    name line_seg_24;
    phases C;
    from R5_12_47_1_node_138;
    to R5_12_47_1_node_11;
    length 5280 ft;
    configuration line_config_seg_24;
}
object overhead_line {
    name line_seg_25;
    phases C;
    from R5_12_47_1_node_138;
    to R5_12_47_1_node_115;
    length 5280 ft;
    configuration line_config_seg_25;
}
object overhead_line {
    name line_seg_26;
    phases ABC;
    from R5_12_47_1_node_160;
    to R5_12_47_1_node_130;
    length 5280 ft;
    configuration line_config_seg_26;
}
object overhead_line {
    name line_seg_27;
    phases AB;
    from R5_12_47_1_node_130;
    to R5_12_47_1_node_122;
    length 5280 ft;
    configuration line_config_seg_27;
}
object overhead_line {
    name line_seg_28;
    phases A;
    from R5_12_47_1_node_122;
    to R5_12_47_1_node_58;
    length 5280 ft;
    configuration line_config_seg_28;
}
object overhead_line {
    name line_seg_29;
    phases C;
    from R5_12_47_1_node_130;
    to R5_12_47_1_node_129;
    length 5280 ft;
    configuration line_config_seg_29;
}
object overhead_line {
    name line_seg_30;
    phases ABC;
    from R5_12_47_1_node_130;
    to R5_12_47_1_node_136;
    length 5280 ft;
    configuration line_config_seg_30;
}
object overhead_line {
    name line_seg_31;
    phases A;
    from R5_12_47_1_node_136;
    to R5_12_47_1_node_123;
    length 5280 ft;
    configuration line_config_seg_31;
}
object overhead_line {
    name line_seg_32;
    phases ABC;
    from R5_12_47_1_node_136;
    to R5_12_47_1_node_133;
    length 5280 ft;
    configuration line_config_seg_32;
}
object overhead_line {
    name line_seg_33;
    phases C;
    from R5_12_47_1_node_133;
    to R5_12_47_1_node_124;
    length 5280 ft;
    configuration line_config_seg_33;
}
object overhead_line {
    name line_seg_34;
    phases ABC;
    from R5_12_47_1_node_133;
    to R5_12_47_1_node_156;
    length 5280 ft;
    configuration line_config_seg_34;
}
object overhead_line {
    name line_seg_35;
    phases B;
    from R5_12_47_1_node_156;
    to R5_12_47_1_node_146;
    length 5280 ft;
    configuration line_config_seg_35;
}
object overhead_line {
    name line_seg_36;
    phases ABC;
    from R5_12_47_1_node_156;
    to R5_12_47_1_node_261;
    length 5280 ft;
    configuration line_config_seg_36;
}
object overhead_line {
    name line_seg_37;
    phases ABC;
    from R5_12_47_1_node_261;
    to R5_12_47_1_node_36;
    length 5280 ft;
    configuration line_config_seg_37;
}
object overhead_line {
    name line_seg_38;
    phases ABC;
    from R5_12_47_1_node_36;
    to R5_12_47_1_node_81;
    length 5280 ft;
    configuration line_config_seg_38;
}
object overhead_line {
    name line_seg_39;
    phases ABC;
    from R5_12_47_1_node_36;
    to R5_12_47_1_node_46;
    length 5280 ft;
    configuration line_config_seg_39;
}
object overhead_line {
    name line_seg_40;
    phases C;
    from R5_12_47_1_node_46;
    to R5_12_47_1_node_47;
    length 5280 ft;
    configuration line_config_seg_40;
}
object overhead_line {
    name line_seg_41;
    phases C;
    from R5_12_47_1_node_47;
    to R5_12_47_1_node_154;
    length 5280 ft;
    configuration line_config_seg_41;
}
object overhead_line {
    name line_seg_42;
    phases ABC;
    from R5_12_47_1_node_46;
    to R5_12_47_1_node_45;
    length 5280 ft;
    configuration line_config_seg_42;
}
object overhead_line {
    name line_seg_43;
    phases ABC;
    from R5_12_47_1_node_45;
    to R5_12_47_1_node_28;
    length 5280 ft;
    configuration line_config_seg_43;
}
object overhead_line {
    name line_seg_44;
    phases ABC;
    from R5_12_47_1_node_45;
    to R5_12_47_1_node_263;
    length 5280 ft;
    configuration line_config_seg_44;
}
object overhead_line {
    name line_seg_45;
    phases ABC;
    from R5_12_47_1_node_263;
    to R5_12_47_1_node_68;
    length 5280 ft;
    configuration line_config_seg_45;
}
object overhead_line {
    name line_seg_46;
    phases ABC;
    from R5_12_47_1_node_68;
    to R5_12_47_1_node_172;
    length 5280 ft;
    configuration line_config_seg_46;
}
object overhead_line {
    name line_seg_47;
    phases ABC;
    from R5_12_47_1_node_68;
    to R5_12_47_1_node_74;
    length 5280 ft;
    configuration line_config_seg_47;
}
object overhead_line {
    name line_seg_48;
    phases ABC;
    from R5_12_47_1_node_74;
    to R5_12_47_1_node_262;
    length 5280 ft;
    configuration line_config_seg_48;
}
object overhead_line {
    name line_seg_49;
    phases ABC;
    from R5_12_47_1_node_262;
    to R5_12_47_1_node_182;
    length 5280 ft;
    configuration line_config_seg_49;
}
object overhead_line {
    name line_seg_50;
    phases ABC;
    from R5_12_47_1_node_74;
    to R5_12_47_1_node_75;
    length 5280 ft;
    configuration line_config_seg_50;
}
object overhead_line {
    name line_seg_51;
    phases ABC;
    from R5_12_47_1_node_75;
    to R5_12_47_1_node_12;
    length 5280 ft;
    configuration line_config_seg_51;
}
object overhead_line {
    name line_seg_52;
    phases ABC;
    from R5_12_47_1_node_75;
    to R5_12_47_1_node_3;
    length 5280 ft;
    configuration line_config_seg_52;
}
object load {
   parent R5_12_47_1_node_105;
   name load_seg_0_R;
   nominal_voltage 7970.00;
   load_class R;
   phases ABCN;
   constant_power_A 9490.94+5489.02j;
   constant_power_B 63533.51+37175.19j;
   constant_power_C 237292.11+132920.02j;
   voltage_A 7970.00;
   voltage_B -3985.00-6902.22j;
   voltage_C -3985.00+6902.22j;
}
object load {
   parent R5_12_47_1_node_107;
   name load_seg_1_R;
   nominal_voltage 7970.00;
   load_class R;
   phases BN;
   constant_power_B 153816.51+90774.44j;
   voltage_B -3985.00-6902.22j;
}
object load {
   parent R5_12_47_1_node_21;
   name load_seg_4_R;
   nominal_voltage 7970.00;
   load_class R;
   phases CN;
   constant_power_C 68754.89+40595.05j;
   voltage_C -3985.00+6902.22j;
}
object load {
   parent R5_12_47_1_node_119;
   name load_seg_8_C;
   nominal_voltage 7970.00;
   load_class C;
   phases ACN;
   constant_power_A 1005.03+597.38j;
   constant_power_C 83.93+48.9j;
   voltage_A 7970.00;
   voltage_C -3985.00+6902.22j;
}
object load {
   parent R5_12_47_1_node_119;
   name load_seg_8_R;
   nominal_voltage 7970.00;
   load_class R;
   phases ACN;
   constant_power_A 55869.82+33208.59j;
   constant_power_C 4665.44+2718.41j;
   voltage_A 7970.00;
   voltage_C -3985.00+6902.22j;
}
object load {
   parent R5_12_47_1_node_80;
   name load_seg_9_R;
   nominal_voltage 7970.00;
   load_class R;
   phases AN;
   constant_power_A 167199.46+98296.83j;
   voltage_A 7970.00;
}
object load {
   parent R5_12_47_1_node_79;
   name load_seg_11_R;
   nominal_voltage 7970.00;
   load_class R;
   phases CN;
   constant_power_C 117867.42+69515.59j;
   voltage_C -3985.00+6902.22j;
}
object load {
   parent R5_12_47_1_node_78;
   name load_seg_13_R;
   nominal_voltage 7970.00;
   load_class R;
   phases BN;
   constant_power_B 210258.9+125952.99j;
   voltage_B -3985.00-6902.22j;
}
object load {
   parent R5_12_47_1_node_112;
   name load_seg_14_R;
   nominal_voltage 7970.00;
   load_class R;
   phases BN;
   constant_power_B 100899.86+60013.51j;
   voltage_B -3985.00-6902.22j;
}
object load {
   parent R5_12_47_1_node_120;
   name load_seg_16_R;
   nominal_voltage 7970.00;
   load_class R;
   phases AN;
   constant_power_A 42234.04+25097.97j;
   voltage_A 7970.00;
}
object load {
   parent R5_12_47_1_node_113;
   name load_seg_18_R;
   nominal_voltage 7970.00;
   load_class R;
   phases AN;
   constant_power_A 128602.47+76331.78j;
   voltage_A 7970.00;
}
object load {
   parent R5_12_47_1_node_114;
   name load_seg_20_R;
   nominal_voltage 7970.00;
   load_class R;
   phases BN;
   constant_power_B 186283.85+110424.3j;
   voltage_B -3985.00-6902.22j;
}
object load {
   parent R5_12_47_1_node_10;
   name load_seg_21_R;
   nominal_voltage 7970.00;
   load_class R;
   phases BCN;
   constant_power_B 55256.27+34651.41j;
   constant_power_C 162624.34+94888.31j;
   voltage_B -3985.00-6902.22j;
   voltage_C -3985.00+6902.22j;
}
object load {
   parent R5_12_47_1_node_11;
   name load_seg_24_R;
   nominal_voltage 7970.00;
   load_class R;
   phases CN;
   constant_power_C 225839.57+133511.68j;
   voltage_C -3985.00+6902.22j;
}
object load {
   parent R5_12_47_1_node_115;
   name load_seg_25_R;
   nominal_voltage 7970.00;
   load_class R;
   phases CN;
   constant_power_C 87972.86+52257.14j;
   voltage_C -3985.00+6902.22j;
}
object load {
   parent R5_12_47_1_node_122;
   name load_seg_27_C;
   nominal_voltage 7970.00;
   load_class C;
   phases ABN;
   constant_power_A 1079.53+644.11j;
   constant_power_B 4.5+1.66j;
   voltage_A 7970.00;
   voltage_B -3985.00-6902.22j;
}
object load {
   parent R5_12_47_1_node_122;
   name load_seg_27_R;
   nominal_voltage 7970.00;
   load_class R;
   phases ABN;
   constant_power_A 105347.31+62855.85j;
   constant_power_B 439.6+162.11j;
   voltage_A 7970.00;
   voltage_B -3985.00-6902.22j;
}
object load {
   parent R5_12_47_1_node_58;
   name load_seg_28_R;
   nominal_voltage 7970.00;
   load_class R;
   phases AN;
   constant_power_A 53077.54+31602.21j;
   voltage_A 7970.00;
}
object load {
   parent R5_12_47_1_node_129;
   name load_seg_29_C;
   nominal_voltage 7970.00;
   load_class C;
   phases CN;
   constant_power_C 2643.38+1577.8j;
   voltage_C -3985.00+6902.22j;
}
object load {
   parent R5_12_47_1_node_129;
   name load_seg_29_R;
   nominal_voltage 7970.00;
   load_class R;
   phases CN;
   constant_power_C 288169.04+172004.6j;
   voltage_C -3985.00+6902.22j;
}
object load {
   parent R5_12_47_1_node_123;
   name load_seg_31_R;
   nominal_voltage 7970.00;
   load_class R;
   phases AN;
   constant_power_A 197335.48+118211.14j;
   voltage_A 7970.00;
}
object load {
   parent R5_12_47_1_node_133;
   name load_seg_32_R;
   nominal_voltage 7970.00;
   load_class R;
   phases ABCN;
   constant_power_A 0+0j;
   constant_power_B 0+0j;
   constant_power_C 44606.38+26404.31j;
   voltage_A 7970.00;
   voltage_B -3985.00-6902.22j;
   voltage_C -3985.00+6902.22j;
}
object load {
   parent R5_12_47_1_node_124;
   name load_seg_33_R;
   nominal_voltage 7970.00;
   load_class R;
   phases CN;
   constant_power_C 231177.67+136552.74j;
   voltage_C -3985.00+6902.22j;
}
object load {
   parent R5_12_47_1_node_146;
   name load_seg_35_R;
   nominal_voltage 7970.00;
   load_class R;
   phases BN;
   constant_power_B 275846.88+165137.36j;
   voltage_B -3985.00-6902.22j;
}
object load {
   parent R5_12_47_1_node_261;
   name load_seg_36_R;
   nominal_voltage 7970.00;
   load_class R;
   phases ABCN;
   constant_power_A 94076.36+61161.46j;
   constant_power_B 94070.47+61221.35j;
   constant_power_C 108124.91+69670.11j;
   voltage_A 7970.00;
   voltage_B -3985.00-6902.22j;
   voltage_C -3985.00+6902.22j;
}
object load {
   parent R5_12_47_1_node_36;
   name load_seg_37_C;
   nominal_voltage 7970.00;
   load_class C;
   phases ABCN;
   constant_power_A 0+0j;
   constant_power_B 0+0j;
   constant_power_C 1527.+899.41j;
   voltage_A 7970.00;
   voltage_B -3985.00-6902.22j;
   voltage_C -3985.00+6902.22j;
}
object load {
   parent R5_12_47_1_node_36;
   name load_seg_37_R;
   nominal_voltage 7970.00;
   load_class R;
   phases ABCN;
   constant_power_A 0+0j;
   constant_power_B 0+0j;
   constant_power_C 123990.39+73030.49j;
   voltage_A 7970.00;
   voltage_B -3985.00-6902.22j;
   voltage_C -3985.00+6902.22j;
}
object load {
   parent R5_12_47_1_node_81;
   name load_seg_38_C;
   nominal_voltage 7970.00;
   load_class C;
   phases ABCN;
   constant_power_A 42.09+4.89j;
   constant_power_B 42.33+24.63j;
   constant_power_C 2568.3+1489.81j;
   voltage_A 7970.00;
   voltage_B -3985.00-6902.22j;
   voltage_C -3985.00+6902.22j;
}
object load {
   parent R5_12_47_1_node_81;
   name load_seg_38_R;
   nominal_voltage 7970.00;
   load_class R;
   phases ABCN;
   constant_power_A 2319.23+269.31j;
   constant_power_B 2332.41+1357.27j;
   constant_power_C 141512.64+82088.01j;
   voltage_A 7970.00;
   voltage_B -3985.00-6902.22j;
   voltage_C -3985.00+6902.22j;
}
object load {
   parent R5_12_47_1_node_46;
   name load_seg_39_R;
   nominal_voltage 7970.00;
   load_class R;
   phases ABCN;
   constant_power_A 2373.64+1378.67j;
   constant_power_B 85111.93+44144.86j;
   constant_power_C 53468.78+28741.08j;
   voltage_A 7970.00;
   voltage_B -3985.00-6902.22j;
   voltage_C -3985.00+6902.22j;
}
object load {
   parent R5_12_47_1_node_154;
   name load_seg_41_R;
   nominal_voltage 7970.00;
   load_class R;
   phases CN;
   constant_power_C 179094.68+106099.06j;
   voltage_C -3985.00+6902.22j;
}
object load {
   parent R5_12_47_1_node_28;
   name load_seg_43_R;
   nominal_voltage 7970.00;
   load_class R;
   phases ABCN;
   constant_power_A 40264.86+22619.26j;
   constant_power_B 2374.42+1381.17j;
   constant_power_C 2374.62+1379.04j;
   voltage_A 7970.00;
   voltage_B -3985.00-6902.22j;
   voltage_C -3985.00+6902.22j;
}
object load {
   parent R5_12_47_1_node_263;
   name load_seg_44_C;
   nominal_voltage 7970.00;
   load_class C;
   phases ABCN;
   constant_power_A 264840.19+149762.21j;
   constant_power_B 338642.73+175487.28j;
   constant_power_C 197835.19+113517.4j;
   voltage_A 7970.00;
   voltage_B -3985.00-6902.22j;
   voltage_C -3985.00+6902.22j;
}
object load {
   parent R5_12_47_1_node_68;
   name load_seg_45_C;
   nominal_voltage 7970.00;
   load_class C;
   phases ABCN;
   constant_power_A 120560.02+78577.81j;
   constant_power_B 120585.83+78636.25j;
   constant_power_C 120574.02+78742.73j;
   voltage_A 7970.00;
   voltage_B -3985.00-6902.22j;
   voltage_C -3985.00+6902.22j;
}
object load {
   parent R5_12_47_1_node_172;
   name load_seg_46_C;
   nominal_voltage 7970.00;
   load_class C;
   phases ABCN;
   constant_power_A 0+0j;
   constant_power_B 0+0j;
   constant_power_C 2491.69+1531.57j;
   voltage_A 7970.00;
   voltage_B -3985.00-6902.22j;
   voltage_C -3985.00+6902.22j;
}
object load {
   parent R5_12_47_1_node_172;
   name load_seg_46_R;
   nominal_voltage 7970.00;
   load_class R;
   phases ABCN;
   constant_power_A 0+0j;
   constant_power_B 0+0j;
   constant_power_C 125.34+77.05j;
   voltage_A 7970.00;
   voltage_B -3985.00-6902.22j;
   voltage_C -3985.00+6902.22j;
}
object load {
   parent R5_12_47_1_node_74;
   name load_seg_47_C;
   nominal_voltage 7970.00;
   load_class C;
   phases ABCN;
   constant_power_A 148932.27+144916.26j;
   constant_power_B 129202.73+120446.56j;
   constant_power_C 150302.3+121494.75j;
   voltage_A 7970.00;
   voltage_B -3985.00-6902.22j;
   voltage_C -3985.00+6902.22j;
}
object load {
   parent R5_12_47_1_node_262;
   name load_seg_48_C;
   nominal_voltage 7970.00;
   load_class C;
   phases ABCN;
   constant_power_A 80953.97+51912.75j;
   constant_power_B 80959.45+51926.4j;
   constant_power_C 80977.04+51977.36j;
   voltage_A 7970.00;
   voltage_B -3985.00-6902.22j;
   voltage_C -3985.00+6902.22j;
}
object load {
   parent R5_12_47_1_node_75;
   name load_seg_50_C;
   nominal_voltage 7970.00;
   load_class C;
   phases ABCN;
   constant_power_A 26877.76+8921.42j;
   constant_power_B 18682.68+9629.04j;
   constant_power_C 6651.37+12376.11j;
   voltage_A 7970.00;
   voltage_B -3985.00-6902.22j;
   voltage_C -3985.00+6902.22j;
}
object load {
   parent R5_12_47_1_node_75;
   name load_seg_50_R;
   nominal_voltage 7970.00;
   load_class R;
   phases ABCN;
   constant_power_A 2181.86+724.21j;
   constant_power_B 1516.6+781.66j;
   constant_power_C 539.94+1004.66j;
   voltage_A 7970.00;
   voltage_B -3985.00-6902.22j;
   voltage_C -3985.00+6902.22j;
}
object load {
   parent R5_12_47_1_node_12;
   name load_seg_51_C;
   nominal_voltage 7970.00;
   load_class C;
   phases ABCN;
   constant_power_A 60267.9+20603.47j;
   constant_power_B 101866.7+60782.8j;
   constant_power_C 37685.35+42814.17j;
   voltage_A 7970.00;
   voltage_B -3985.00-6902.22j;
   voltage_C -3985.00+6902.22j;
}
object load {
   parent R5_12_47_1_node_3;
   name load_seg_52_C;
   nominal_voltage 7970.00;
   load_class C;
   phases ABCN;
   constant_power_A 248140.83+142146.84j;
   constant_power_B 126571.14+82626.27j;
   constant_power_C 141514.98+113851.91j;
   voltage_A 7970.00;
   voltage_B -3985.00-6902.22j;
   voltage_C -3985.00+6902.22j;
}
object load {
   parent R5_12_47_1_node_105;
   name load_junction_seg_0_R;
   nominal_voltage 7970.00;
   load_class R;
   phases ABCN;
   constant_power_A 2375.15+1387.04j;
   constant_power_B 2375.07+1386.21j;
   constant_power_C 62245.64+32335.87j;
   voltage_A 7970.00;
   voltage_B -3985.00-6902.22j;
   voltage_C -3985.00+6902.22j;
}
object load {
   parent R5_12_47_1_node_107;
   name load_junction_seg_1_R;
   nominal_voltage 7970.00;
   load_class R;
   phases BN;
   constant_power_B 28815.56+17178.97j;
   voltage_B -3985.00-6902.22j;
}
object load {
   parent R5_12_47_1_node_104;
   name load_junction_seg_2_R;
   nominal_voltage 7970.00;
   load_class R;
   phases ABCN;
   constant_power_A 2375.12+1386.72j;
   constant_power_B 2375.04+1385.81j;
   constant_power_C 15360.93+9166.49j;
   voltage_A 7970.00;
   voltage_B -3985.00-6902.22j;
   voltage_C -3985.00+6902.22j;
}
object load {
   parent R5_12_47_1_node_196;
   name load_junction_seg_3_R;
   nominal_voltage 7970.00;
   load_class R;
   phases BN;
   constant_power_B 33041.58+19614.05j;
   voltage_B -3985.00-6902.22j;
}
object load {
   parent R5_12_47_1_node_21;
   name load_junction_seg_4_R;
   nominal_voltage 7970.00;
   load_class R;
   phases CN;
   constant_power_C 53419.13+31569.91j;
   voltage_C -3985.00+6902.22j;
}
object load {
   parent R5_12_47_1_node_197;
   name load_junction_seg_6_R;
   nominal_voltage 7970.00;
   load_class R;
   phases BN;
   constant_power_B 27669.83+16418.1j;
   voltage_B -3985.00-6902.22j;
}
object load {
   parent R5_12_47_1_node_166;
   name load_junction_seg_7_C;
   nominal_voltage 7970.00;
   load_class C;
   phases ABCN;
   constant_power_A 26.87+15.68j;
   constant_power_B 219.07+129.61j;
   constant_power_C 26.86+15.65j;
   voltage_A 7970.00;
   voltage_B -3985.00-6902.22j;
   voltage_C -3985.00+6902.22j;
}
object load {
   parent R5_12_47_1_node_166;
   name load_junction_seg_7_R;
   nominal_voltage 7970.00;
   load_class R;
   phases ABCN;
   constant_power_A 2348.19+1370.3j;
   constant_power_B 19147.3+11327.88j;
   constant_power_C 2347.99+1367.89j;
   voltage_A 7970.00;
   voltage_B -3985.00-6902.22j;
   voltage_C -3985.00+6902.22j;
}
object load {
   parent R5_12_47_1_node_119;
   name load_junction_seg_8_C;
   nominal_voltage 7970.00;
   load_class C;
   phases ACN;
   constant_power_A 39.96+4.89j;
   constant_power_C 517.15+330.55j;
   voltage_A 7970.00;
   voltage_C -3985.00+6902.22j;
}
object load {
   parent R5_12_47_1_node_119;
   name load_junction_seg_8_R;
   nominal_voltage 7970.00;
   load_class R;
   phases ACN;
   constant_power_A 2221.41+271.74j;
   constant_power_C 28748.48+18375.2j;
   voltage_A 7970.00;
   voltage_C -3985.00+6902.22j;
}
object load {
   parent R5_12_47_1_node_80;
   name load_junction_seg_9_R;
   nominal_voltage 7970.00;
   load_class R;
   phases AN;
   constant_power_A 45020.31+26683.58j;
   voltage_A 7970.00;
}
object load {
   parent R5_12_47_1_node_79;
   name load_junction_seg_11_R;
   nominal_voltage 7970.00;
   load_class R;
   phases CN;
   constant_power_C 25799.73+14640.96j;
   voltage_C -3985.00+6902.22j;
}
object load {
   parent R5_12_47_1_node_78;
   name load_junction_seg_13_R;
   nominal_voltage 7970.00;
   load_class R;
   phases BN;
   constant_power_B 55797.84+33355.76j;
   voltage_B -3985.00-6902.22j;
}
object load {
   parent R5_12_47_1_node_112;
   name load_junction_seg_14_R;
   nominal_voltage 7970.00;
   load_class R;
   phases BN;
   constant_power_B 23224.24+13871.78j;
   voltage_B -3985.00-6902.22j;
}
object load {
   parent R5_12_47_1_node_120;
   name load_junction_seg_16_R;
   nominal_voltage 7970.00;
   load_class R;
   phases AN;
   constant_power_A 17531.85+10428.82j;
   voltage_A 7970.00;
}
object load {
   parent R5_12_47_1_node_113;
   name load_junction_seg_18_R;
   nominal_voltage 7970.00;
   load_class R;
   phases AN;
   constant_power_A 49450.91+27908.38j;
   voltage_A 7970.00;
}
object load {
   parent R5_12_47_1_node_114;
   name load_junction_seg_20_R;
   nominal_voltage 7970.00;
   load_class R;
   phases BN;
   constant_power_B 48546.43+28795.36j;
   voltage_B -3985.00-6902.22j;
}
object load {
   parent R5_12_47_1_node_10;
   name load_junction_seg_21_R;
   nominal_voltage 7970.00;
   load_class R;
   phases BCN;
   constant_power_B 63981.78+37684.07j;
   constant_power_C 2374.73+1382.1j;
   voltage_B -3985.00-6902.22j;
   voltage_C -3985.00+6902.22j;
}
object load {
   parent R5_12_47_1_node_11;
   name load_junction_seg_24_R;
   nominal_voltage 7970.00;
   load_class R;
   phases CN;
   constant_power_C 69729.66+41155.96j;
   voltage_C -3985.00+6902.22j;
}
object load {
   parent R5_12_47_1_node_115;
   name load_junction_seg_25_R;
   nominal_voltage 7970.00;
   load_class R;
   phases CN;
   constant_power_C 42244.3+25087.91j;
   voltage_C -3985.00+6902.22j;
}
object load {
   parent R5_12_47_1_node_122;
   name load_junction_seg_27_C;
   nominal_voltage 7970.00;
   load_class C;
   phases ABN;
   constant_power_A 546.8+327.21j;
   constant_power_B 7.56+1.69j;
   voltage_A 7970.00;
   voltage_B -3985.00-6902.22j;
}
object load {
   parent R5_12_47_1_node_122;
   name load_junction_seg_27_R;
   nominal_voltage 7970.00;
   load_class R;
   phases ABN;
   constant_power_A 53360.01+31930.98j;
   constant_power_B 737.88+165.02j;
   voltage_A 7970.00;
   voltage_B -3985.00-6902.22j;
}
object load {
   parent R5_12_47_1_node_58;
   name load_junction_seg_28_R;
   nominal_voltage 7970.00;
   load_class R;
   phases AN;
   constant_power_A 72634.96+43299.7j;
   voltage_A 7970.00;
}
object load {
   parent R5_12_47_1_node_129;
   name load_junction_seg_29_C;
   nominal_voltage 7970.00;
   load_class C;
   phases CN;
   constant_power_C 459.47+246.51j;
   voltage_C -3985.00+6902.22j;
}
object load {
   parent R5_12_47_1_node_129;
   name load_junction_seg_29_R;
   nominal_voltage 7970.00;
   load_class R;
   phases CN;
   constant_power_C 50089.57+26872.98j;
   voltage_C -3985.00+6902.22j;
}
object load {
   parent R5_12_47_1_node_123;
   name load_junction_seg_31_R;
   nominal_voltage 7970.00;
   load_class R;
   phases AN;
   constant_power_A 86880.28+51782.2j;
   voltage_A 7970.00;
}
object load {
   parent R5_12_47_1_node_124;
   name load_junction_seg_33_R;
   nominal_voltage 7970.00;
   load_class R;
   phases CN;
   constant_power_C 54794.15+32321.58j;
   voltage_C -3985.00+6902.22j;
}
object load {
   parent R5_12_47_1_node_156;
   name load_junction_seg_34_C;
   nominal_voltage 7970.00;
   load_class C;
   phases ABCN;
   constant_power_A 3935.11+477.21j;
   constant_power_B 1089.24+634.31j;
   constant_power_C 15811.33+11346.31j;
   voltage_A 7970.00;
   voltage_B -3985.00-6902.22j;
   voltage_C -3985.00+6902.22j;
}
object load {
   parent R5_12_47_1_node_156;
   name load_junction_seg_34_R;
   nominal_voltage 7970.00;
   load_class R;
   phases ABCN;
   constant_power_A 4644.33+563.21j;
   constant_power_B 1285.55+748.64j;
   constant_power_C 18661.+13391.24j;
   voltage_A 7970.00;
   voltage_B -3985.00-6902.22j;
   voltage_C -3985.00+6902.22j;
}
object load {
   parent R5_12_47_1_node_146;
   name load_junction_seg_35_R;
   nominal_voltage 7970.00;
   load_class R;
   phases BN;
   constant_power_B 58909.75+35176.83j;
   voltage_B -3985.00-6902.22j;
}
object load {
   parent R5_12_47_1_node_81;
   name load_junction_seg_38_C;
   nominal_voltage 7970.00;
   load_class C;
   phases ABCN;
   constant_power_A 691.5+368.08j;
   constant_power_B 42.33+24.63j;
   constant_power_C 42.33+24.59j;
   voltage_A 7970.00;
   voltage_B -3985.00-6902.22j;
   voltage_C -3985.00+6902.22j;
}
object load {
   parent R5_12_47_1_node_81;
   name load_junction_seg_38_R;
   nominal_voltage 7970.00;
   load_class R;
   phases ABCN;
   constant_power_A 38101.66+20281.22j;
   constant_power_B 2332.39+1357.27j;
   constant_power_C 2332.22+1354.91j;
   voltage_A 7970.00;
   voltage_B -3985.00-6902.22j;
   voltage_C -3985.00+6902.22j;
}
object load {
   parent R5_12_47_1_node_46;
   name load_junction_seg_39_R;
   nominal_voltage 7970.00;
   load_class R;
   phases ABCN;
   constant_power_A 52355.4+28897.65j;
   constant_power_B 2374.69+1381.49j;
   constant_power_C 2374.51+1379.04j;
   voltage_A 7970.00;
   voltage_B -3985.00-6902.22j;
   voltage_C -3985.00+6902.22j;
}
object load {
   parent R5_12_47_1_node_154;
   name load_junction_seg_41_R;
   nominal_voltage 7970.00;
   load_class R;
   phases CN;
   constant_power_C 47943.72+28366.23j;
   voltage_C -3985.00+6902.22j;
}
object load {
   parent R5_12_47_1_node_28;
   name load_junction_seg_43_R;
   nominal_voltage 7970.00;
   load_class R;
   phases ABCN;
   constant_power_A 2374.79+1382.83j;
   constant_power_B 70398.21+38119.29j;
   constant_power_C 2374.51+1379.03j;
   voltage_A 7970.00;
   voltage_B -3985.00-6902.22j;
   voltage_C -3985.00+6902.22j;
}
object load {
   parent R5_12_47_1_node_263;
   name load_junction_seg_44_C;
   nominal_voltage 7970.00;
   load_class C;
   phases ABCN;
   constant_power_A 94610.57+45144.01j;
   constant_power_B 0+0j;
   constant_power_C 14477.24+27079.93j;
   voltage_A 7970.00;
   voltage_B -3985.00-6902.22j;
   voltage_C -3985.00+6902.22j;
}
object load {
   parent R5_12_47_1_node_68;
   name load_junction_seg_45_C;
   nominal_voltage 7970.00;
   load_class C;
   phases ABCN;
   constant_power_A 3334.04+6251.5j;
   constant_power_B 30392.73+15398.99j;
   constant_power_C 0+0j;
   voltage_A 7970.00;
   voltage_B -3985.00-6902.22j;
   voltage_C -3985.00+6902.22j;
}
object load {
   parent R5_12_47_1_node_172;
   name load_junction_seg_46_C;
   nominal_voltage 7970.00;
   load_class C;
   phases ABCN;
   constant_power_A 79143.92+51378.55j;
   constant_power_B 82712.86+53235.24j;
   constant_power_C 86630.22+55260.94j;
   voltage_A 7970.00;
   voltage_B -3985.00-6902.22j;
   voltage_C -3985.00+6902.22j;
}
object load {
   parent R5_12_47_1_node_172;
   name load_junction_seg_46_R;
   nominal_voltage 7970.00;
   load_class R;
   phases ABCN;
   constant_power_A 3981.35+2584.61j;
   constant_power_B 4160.89+2678.01j;
   constant_power_C 4357.95+2779.91j;
   voltage_A 7970.00;
   voltage_B -3985.00-6902.22j;
   voltage_C -3985.00+6902.22j;
}
object load {
   parent R5_12_47_1_node_182;
   name load_junction_seg_49_C;
   nominal_voltage 7970.00;
   load_class C;
   phases ABCN;
   constant_power_A 88399.84+57389.37j;
   constant_power_B 124693.11+60370.83j;
   constant_power_C 105951.08+90742.31j;
   voltage_A 7970.00;
   voltage_B -3985.00-6902.22j;
   voltage_C -3985.00+6902.22j;
}
object load {
   parent R5_12_47_1_node_75;
   name load_junction_seg_50_C;
   nominal_voltage 7970.00;
   load_class C;
   phases ABCN;
   constant_power_A 26656.62+16637.71j;
   constant_power_B 2196.25+1275.74j;
   constant_power_C 2196.09+1273.23j;
   voltage_A 7970.00;
   voltage_B -3985.00-6902.22j;
   voltage_C -3985.00+6902.22j;
}
object load {
   parent R5_12_47_1_node_75;
   name load_junction_seg_50_R;
   nominal_voltage 7970.00;
   load_class R;
   phases ABCN;
   constant_power_A 2163.9+1350.6j;
   constant_power_B 178.28+103.56j;
   constant_power_C 178.27+103.36j;
   voltage_A 7970.00;
   voltage_B -3985.00-6902.22j;
   voltage_C -3985.00+6902.22j;
}
object load {
   parent R5_12_47_1_node_12;
   name load_junction_seg_51_C;
   nominal_voltage 7970.00;
   load_class C;
   phases ABCN;
   constant_power_A 13267.71+8353.66j;
   constant_power_B 13268.72+8355.19j;
   constant_power_C 13272.36+8360.7j;
   voltage_A 7970.00;
   voltage_B -3985.00-6902.22j;
   voltage_C -3985.00+6902.22j;
}
object load {
   parent R5_12_47_1_node_3;
   name load_junction_seg_52_C;
   nominal_voltage 7970.00;
   load_class C;
   phases ABCN;
   constant_power_A 564131.36+363177.58j;
   constant_power_B 564151.96+363343.92j;
   constant_power_C 564249.79+364114.14j;
   voltage_A 7970.00;
   voltage_B -3985.00-6902.22j;
   voltage_C -3985.00+6902.22j;
}
object voltdump {
	 filename R5-12-47-1_node_voltage_sim.csv;
}

object currdump {
	 filename R5-12-47-1_branch_current_sim.csv;
}

